   pe                 -- file generated from Ag ps file
        tm2
   Ag   pb 
     0.000     0.000     0.000     0.000     0.000     0.000
    8    4
    5    0     1.000     0.000    #5s
    5    1     0.000     0.000    #5p
    4    2    10.000     0.000    #4d
    4    3     0.000     0.000    #4f
   2.52000   2.72000   2.52000   2.52000   0.01000  -1.00000 small core charge

#23456789012345678901234567890123456789012345678901234567890      Ruler
