   pe                 -- file generated from Al ps file
        tm2
   Al   pb 
     0.000     0.000     0.000     0.000     0.000     0.000
    3    4
    3    0     2.000     0.000    #3s
    3    1     1.000     0.000    #3p
    3    2     0.000     0.000    #3d
    4    3     0.000     0.000    #4f
   1.86000   2.06000   2.22000   2.22000   0.01000  -1.00000 small core charge

#23456789012345678901234567890123456789012345678901234567890      Ruler
