   pe                 -- file generated from As ps file
        tm2
   As   pb 
     0.000     0.000     0.000     0.000     0.000     0.000
    6    4
    4    0     2.000     0.000    #4s
    4    1     3.000     0.000    #4p
    4    2     0.000     0.000    #4d
    4    3     0.000     0.000    #4f
   2.05000   2.26000   2.21000   2.56000   0.01000  -1.00000 small core charge

#23456789012345678901234567890123456789012345678901234567890      Ruler
