   pe                 -- file generated from Ba ps file
        tm2
   Ba   pb 
     0.000     0.000     0.000     0.000     0.000     0.000
   11    4
    6    0     2.000     0.000    #6s
    6    1     0.000     0.000    #6p
    5    2     0.000     0.000    #5d
    4    3     0.000     0.000    #4f
   4.42000   5.08000   4.10000   3.28000   0.00000   3.50000 Core corrs

#23456789012345678901234567890123456789012345678901234567890      Ruler

