   pe                 -- file generated from Be ps file
        tm2
   Be   pb 
     0.000     0.000     0.000     0.000     0.000     0.000
    1    4
    2    0     2.000     0.000    #2s
    2    1     0.000     0.000    #2p
    3    2     0.000     0.000    #3d
    4    3     0.000     0.000    #4f
   2.17000   2.17000   2.46000   2.46000   0.01000  -1.00000 small core charge

#23456789012345678901234567890123456789012345678901234567890      Ruler
