   pe                 -- file generated from Br ps file
        tm2
   Br   pb 
     0.000     0.000     0.000     0.000     0.000     0.000
    6    4
    4    0     2.000     0.000    #4s
    4    1     5.000     0.000    #4p
    4    2     0.000     0.000    #4d
    4    3     0.000     0.000    #4f
   1.84000   2.19000   1.70000   2.30000   0.01000  -1.00000 small core charge

#23456789012345678901234567890123456789012345678901234567890      Ruler
