   pe                 -- file generated from Ca ps file
        tm2
   Ca   pb 
     0.000     0.000     0.000     0.000     0.000     0.000
    5    4
    4    0     2.000     0.000    #4s
    4    1     0.000     0.000    #4p
    3    2     0.000     0.000    #3d
    4    3     0.000     0.000    #4f
   2.98000   2.98000   2.66000   2.66000   0.00000   2.60000 Core corrs

#23456789012345678901234567890123456789012345678901234567890      Ruler
