   pe                 -- file generated from Cr ps file
        tm2
   Cr   pb 
     0.000     0.000     0.000     0.000     0.000     0.000
    5    4
    4    0     1.000     0.000    #4s
    4    1     0.000     0.000    #4p
    3    2     5.000     0.000    #3d
    4    3     0.000     0.000    #4f
   2.61000   2.61000   2.45000   2.45000   0.01000  -1.00000 small core charge

#23456789012345678901234567890123456789012345678901234567890      Ruler
