   pe                  -- file generated from F ps file
        tm2
    F   pb 
     0.000     0.000     0.000     0.000     0.000     0.000
    1    4
    2    0     2.000     0.000    #2s
    2    1     5.000     0.000    #2p
    3    2     0.000     0.000    #3d
    4    3     0.000     0.000    #4f
   1.41000   1.41000   1.41000   1.41000   0.01000  -1.00000 small core charge

#23456789012345678901234567890123456789012345678901234567890      Ruler
