   pe                 -- file generated from Fe ps file
        tm2
   Fe   pb 
     0.000     0.000     0.000     0.000     0.000     0.000
    5    4
    4    0     2.000     0.000    #4s
    4    1     0.000     0.000    #4p
    3    2     6.000     0.000    #3d
    4    3     0.000     0.000    #4f
   2.41000   2.53000   2.29000   2.29000   0.01000  -1.00000 small core charge

#23456789012345678901234567890123456789012345678901234567890      Ruler
