   pe                 -- file generated from Ga ps file
        tm2
   Ga   pb 
     0.000     0.000     0.000     0.000     0.000     0.000
    6    4
    4    0     2.000     0.000    #4s
    4    1     1.000     0.000    #4p
    4    2     0.000     0.000    #4d
    4    3     0.000     0.000    #4f
   2.18000   2.47000   2.59000   2.59000   0.01000  -1.00000 small core charge

#23456789012345678901234567890123456789012345678901234567890      Ruler
