   pe                 -- file generated from Hg ps file
        tm2
   Hg   pb 
     0.000     0.000     0.000     0.000     0.000     0.000
   12    4
    6    0     2.000     0.000    #6s
    6    1     0.000     0.000    #6p
    5    2    10.000     0.000    #5d
    5    3     0.000     0.000    #5f
   3.93000   2.60000   2.47000   2.47000   0.00000   1.00000 Core corrs

#23456789012345678901234567890123456789012345678901234567890      Ruler
