   pe                 -- file generated from In ps file
        tm2
   In   pb 
     0.000     0.000     0.000     0.000     0.000     0.000
    9    4
    5    0     2.000     0.000    #5s
    5    1     1.000     0.000    #5p
    5    2     0.000     0.000    #5d
    4    3     0.000     0.000    #4f
   2.54000   2.61000   2.88000   2.42000   0.00000   1.40000 Core corrs

#23456789012345678901234567890123456789012345678901234567890      Ruler
