   pe                 -- file generated from Lu ps file
        tm2
   Lu   pb 
     0.000     0.000     0.000     0.000     0.000     0.000
   11    4
    6    0     2.000     0.000    #6s
    6    1     0.000     0.000    #6p
    5    2     1.000     0.000    #5d
    4    3    14.000     0.000    #4f
   3.08000   4.11000   3.08000   3.08000   0.01000  -1.00000 small core charge

#23456789012345678901234567890123456789012345678901234567890      Ruler
