   pe                 -- file generated from Mg ps file
        tm2
   Mg   pb 
     0.000     0.000     0.000     0.000     0.000     0.000
    3    4
    3    0     2.000     0.000    #3s
    3    1     0.000     0.000    #3p
    3    2     0.000     0.000    #3d
    4    3     0.000     0.000    #4f
   2.18000   2.59000   2.59000   2.59000   0.00000   1.80000 Core corrs

#23456789012345678901234567890123456789012345678901234567890      Ruler
