   pe                 -- file generated from Mo ps file
        tm2
   Mo   pb 
     0.000     0.000     0.000     0.000     0.000     0.000
    8    4
    5    0     1.000     0.000    #5s
    5    1     0.000     0.000    #5p
    4    2     5.000     0.000    #4d
    4    3     0.000     0.000    #4f
   2.75000   2.89000   2.49000   2.49000   0.01000  -1.00000 small core charge

#23456789012345678901234567890123456789012345678901234567890      Ruler
