   pe                 -- file generated from Na ps file
        tm2
   Na   pb 
     0.000     0.000     0.000     0.000     0.000     0.000
    3    4
    3    0     1.000     0.000    #3s
    3    1     0.000     0.000    #3p
    3    2     0.000     0.000    #3d
    4    3     0.000     0.000    #4f
   2.83000   2.83000   3.13000   3.13000   0.00000   2.30000 Core corrs

#23456789012345678901234567890123456789012345678901234567890      Ruler
