   pe                 -- file generated from Nb ps file
        tm2
   Nb   pb 
     0.000     0.000     0.000     0.000     0.000     0.000
    8    4
    5    0     1.000     0.000    #5s
    5    1     0.000     0.000    #5p
    4    2     4.000     0.000    #4d
    4    3     0.000     0.000    #4f
   2.89000   3.12000   2.55000   2.55000   0.01000  -1.00000 small core charge

#23456789012345678901234567890123456789012345678901234567890      Ruler
