   pe                 -- file generated from Ni ps file
        tm2
   Ni   pb 
     0.000     0.000     0.000     0.000     0.000     0.000
    5    4
    4    0     2.000     0.000    #4s
    4    1     0.000     0.000    #4p
    3    2     8.000     0.000    #3d
    4    3     0.000     0.000    #4f
   2.73000   2.41000   2.18000   2.18000   0.01000  -1.00000 small core charge

#23456789012345678901234567890123456789012345678901234567890      Ruler
