   pe                 -- file generated from Ra ps file
        tm2
   Ra   pb 
     0.000     0.000     0.000     0.000     0.000     0.000
   15    4
    7    0     2.000     0.000    #7s
    7    1     0.000     0.000    #7p
    6    2     0.000     0.000    #6d
    5    3     0.000     0.000    #5f
   3.57000   4.15000   3.57000   3.40000   0.00000   3.60000 Core corrs

#23456789012345678901234567890123456789012345678901234567890      Ruler

