   pe                 -- file generated from Re ps file
        tm2
   Re   pb 
     0.000     0.000     0.000     0.000     0.000     0.000
   12    4
    6    0     2.000     0.000    #6s
    6    1     0.000     0.000    #6p
    5    2     5.000     0.000    #5d
    5    3     0.000     0.000    #5f
   2.70000   2.77000   2.51000   2.51000   0.01000  -1.00000 small core charge

#23456789012345678901234567890123456789012345678901234567890      Ruler
