   pe                 -- file generated from Sr ps file
        tm2
   Sr   pb 
     0.000     0.000     0.000     0.000     0.000     0.000
    8    4
    5    0     2.000     0.000    #5s
    5    1     0.000     0.000    #5p
    4    2     0.000     0.000    #4d
    4    3     0.000     0.000    #4f
   3.62000   4.11000   3.20000   3.62000   0.00000   3.00000 Core corrs

#23456789012345678901234567890123456789012345678901234567890      Ruler
