   pe                 -- file generated from Tl ps file
        tm2
   Tl   pb 
     0.000     0.000     0.000     0.000     0.000     0.000
   13    4
    6    0     2.000     0.000    #6s
    6    1     1.000     0.000    #6p
    6    2     0.000     0.000    #6d
    5    3     0.000     0.000    #5f
   2.84000   2.91000   3.14000   3.14000   0.00000   1.50000 Core corrs

#23456789012345678901234567890123456789012345678901234567890      Ruler
