   pe                 -- file generated from Zr ps file
        tm2
   Zr   pb 
     0.000     0.000     0.000     0.000     0.000     0.000
    8    4
    5    0     2.000     0.000    #5s
    5    1     0.000     0.000    #5p
    4    2     2.000     0.000    #4d
    4    3     0.000     0.000    #4f
   3.04000   3.19000   2.68000   2.68000   0.01000  -1.00000 small core charge

#23456789012345678901234567890123456789012345678901234567890      Ruler
